# generated using pymatgen
data_Se
_symmetry_space_group_name_H-M   P2_1/c
_cell_length_a   15.73918137
_cell_length_b   15.30902371
_cell_length_c   10.15386339
_cell_angle_alpha   90.00000000
_cell_angle_beta   94.04286936
_cell_angle_gamma   90.00000000
_symmetry_Int_Tables_number   14
_chemical_formula_structural   Se
_chemical_formula_sum   Se64
_cell_volume   2440.50047819
_cell_formula_units_Z   64
loop_
 _symmetry_equiv_pos_site_id
 _symmetry_equiv_pos_as_xyz
  1  'x, y, z'
  2  '-x, -y, -z'
  3  '-x, y+1/2, -z+1/2'
  4  'x, -y+1/2, z+1/2'
loop_
 _atom_site_type_symbol
 _atom_site_label
 _atom_site_symmetry_multiplicity
 _atom_site_fract_x
 _atom_site_fract_y
 _atom_site_fract_z
 _atom_site_occupancy
  Se  Se1  4  0.013428  0.593959  0.764540  1
  Se  Se2  4  0.015288  0.214049  0.879131  1
  Se  Se3  4  0.086415  0.675372  0.171579  1
  Se  Se4  4  0.093249  0.009713  0.152361  1
  Se  Se5  4  0.185384  0.142437  0.548084  1
  Se  Se6  4  0.193152  0.690537  0.021092  1
  Se  Se7  4  0.230452  0.047426  0.722771  1
  Se  Se8  4  0.231350  0.215177  0.111019  1
  Se  Se9  4  0.238152  0.508143  0.725499  1
  Se  Se10  4  0.304145  0.589422  0.562950  1
  Se  Se11  4  0.308563  0.736288  0.635372  1
  Se  Se12  4  0.353788  0.524822  0.157733  1
  Se  Se13  4  0.355524  0.185345  0.000248  1
  Se  Se14  4  0.473610  0.213948  0.150480  1
  Se  Se15  4  0.474138  0.645501  0.897129  1
  Se  Se16  4  0.475644  0.046220  0.758361  1
