# generated using pymatgen
data_TiO2
_symmetry_space_group_name_H-M   I4_1/amd
_cell_length_a   3.80270954
_cell_length_b   3.80270954
_cell_length_c   9.74775206
_cell_angle_alpha   90.00000000
_cell_angle_beta   90.00000000
_cell_angle_gamma   90.00000000
_symmetry_Int_Tables_number   141
_chemical_formula_structural   TiO2
_chemical_formula_sum   'Ti4 O8'
_cell_volume   140.95834193
_cell_formula_units_Z   4
loop_
 _symmetry_equiv_pos_site_id
 _symmetry_equiv_pos_as_xyz
  1  'x, y, z'
  2  '-y, x+1/2, z+1/4'
  3  '-x, -y, z'
  4  'y, -x+1/2, z+1/4'
  5  'x, -y+1/2, -z+1/4'
  6  '-y, -x, -z'
  7  '-x, y+1/2, -z+1/4'
  8  'y, x, -z'
  9  '-x, -y+1/2, -z+1/4'
  10  'y, -x, -z'
  11  'x, y+1/2, -z+1/4'
  12  '-y, x, -z'
  13  '-x, y, z'
  14  'y, x+1/2, z+1/4'
  15  'x, -y, z'
  16  '-y, -x+1/2, z+1/4'
  17  'x+1/2, y+1/2, z+1/2'
  18  '-y+1/2, x, z+3/4'
  19  '-x+1/2, -y+1/2, z+1/2'
  20  'y+1/2, -x, z+3/4'
  21  'x+1/2, -y, -z+3/4'
  22  '-y+1/2, -x+1/2, -z+1/2'
  23  '-x+1/2, y, -z+3/4'
  24  'y+1/2, x+1/2, -z+1/2'
  25  '-x+1/2, -y, -z+3/4'
  26  'y+1/2, -x+1/2, -z+1/2'
  27  'x+1/2, y, -z+3/4'
  28  '-y+1/2, x+1/2, -z+1/2'
  29  '-x+1/2, y+1/2, z+1/2'
  30  'y+1/2, x, z+3/4'
  31  'x+1/2, -y+1/2, z+1/2'
  32  '-y+1/2, -x, z+3/4'
loop_
 _atom_site_type_symbol
 _atom_site_label
 _atom_site_symmetry_multiplicity
 _atom_site_fract_x
 _atom_site_fract_y
 _atom_site_fract_z
 _atom_site_occupancy
  Ti  Ti0  4  0.000000  0.000000  0.000000  1
  O  O1  8  0.000000  0.000000  0.206163  1
